
     RDKit          2D

 25 28  0  0  0  0  0  0  0  0999 V2000
    0.5917    0.4583    0.0000 N   0  0  0  0  0  0  0  0  0  0  0  0
    0.3750    1.1333    0.0000 C   0  0  0  0  0  0  0  0  0  0  0  0
    0.1500   -0.0917    0.0000 C   0  0  0  0  0  0  0  0  0  0  0  0
    0.3042   -0.7792    0.0000 C   0  0  0  0  0  0  0  0  0  0  0  0
    0.9500    1.5500    0.0000 N   0  0  0  0  0  0  0  0  0  0  0  0
    1.3000    0.4583    0.0000 C   0  0  0  0  0  0  0  0  0  0  0  0
    1.5167    1.1333    0.0000 N   0  0  0  0  0  0  0  0  0  0  0  0
    0.9500   -1.0917    0.0000 C   0  0  0  0  0  0  0  0  0  0  0  0
    1.5875   -0.7792    0.0000 N   0  0  0  0  0  0  0  0  0  0  0  0
    1.7417   -0.0917    0.0000 C   0  0  0  0  0  0  0  0  0  0  0  0
   -0.5333    0.1208    0.0000 C   0  0  0  0  0  0  0  0  0  0  0  0
   -0.3000    1.3583    0.0000 C   0  0  0  0  0  0  0  0  0  0  0  0
   -0.2083   -1.2667    0.0000 C   0  0  0  0  0  0  0  0  0  0  0  0
    0.9500   -1.8000    0.0000 C   0  0  0  0  0  0  0  0  0  0  0  0
   -0.9083    1.0000    0.0000 N   0  0  0  0  0  0  0  0  0  0  0  0
   -0.8958   -1.0542    0.0000 C   0  0  0  0  0  0  0  0  0  0  0  0
   -1.0500   -0.3667    0.0000 C   0  0  0  0  0  0  0  0  0  0  0  0
   -1.4083   -1.5417    0.0000 Cl  0  0  0  0  0  0  0  0  0  0  0  0
    1.5667   -2.1542    0.0000 C   0  0  0  0  0  0  0  0  0  0  0  0
    0.3292   -2.1542    0.0000 C   0  0  0  0  0  0  0  0  0  0  0  0
   -1.0958    0.3125    0.0000 C   0  0  0  0  0  0  0  0  0  0  0  0
   -1.5833    1.2208    0.0000 C   0  0  0  0  0  0  0  0  0  0  0  0
    0.3292   -2.8667    0.0000 C   0  0  0  0  0  0  0  0  0  0  0  0
    1.5667   -2.8667    0.0000 C   0  0  0  0  0  0  0  0  0  0  0  0
    0.9500   -3.2250    0.0000 C   0  0  0  0  0  0  0  0  0  0  0  0
  2  1  1  0
  3  1  1  0
  4  3  2  0
  5  2  2  0
  6  1  1  0
  7  6  2  0
  8  4  1  0
  9 10  1  0
 10  6  1  0
 11  3  1  0
 12  2  1  0
 13  4  1  0
 14  8  1  0
 15 12  1  0
 16 13  2  0
 17 11  2  0
 18 16  1  0
 19 14  2  0
 20 14  1  0
 21 15  1  0
 22 15  1  0
 23 20  2  0
 24 19  1  0
 25 24  2  0
  5  7  1  0
 16 17  1  0
  9  8  2  0
 23 25  1  0
M  END

> <chembl_id>
CHEMBL328250

> <chembl_pref_name>
ADINAZOLAM

$$$$

     RDKit          2D

 22 25  0  0  0  0  0  0  0  0999 V2000
    0.8689   -1.3311    0.0000 N   0  0  0  0  0  0  0  0  0  0  0  0
    0.0000   -0.3882    0.0000 C   0  0  0  0  0  0  0  0  0  0  0  0
    0.0000    1.1277    0.0000 C   0  0  0  0  0  0  0  0  0  0  0  0
    2.3849   -1.0353    0.0000 C   0  0  0  0  0  0  0  0  0  0  0  0
    3.1059   -2.4034    0.0000 N   0  0  0  0  0  0  0  0  0  0  0  0
    0.9429    2.0521    0.0000 C   0  0  0  0  0  0  0  0  0  0  0  0
    2.4219    1.7563    0.0000 N   0  0  0  0  0  0  0  0  0  0  0  0
    2.0706   -3.4942    0.0000 N   0  0  0  0  0  0  0  0  0  0  0  0
    0.6840   -2.8471    0.0000 C   0  0  0  0  0  0  0  0  0  0  0  0
    3.0874    0.3143    0.0000 C   0  0  0  0  0  0  0  0  0  0  0  0
   -1.3126   -1.1462    0.0000 C   0  0  0  0  0  0  0  0  0  0  0  0
   -1.3126    1.8857    0.0000 C   0  0  0  0  0  0  0  0  0  0  0  0
    0.5151    3.4906    0.0000 C   0  0  0  0  0  0  0  0  0  0  0  0
   -2.6437    1.1277    0.0000 C   0  0  0  0  0  0  0  0  0  0  0  0
   -2.6437   -0.3882    0.0000 C   0  0  0  0  0  0  0  0  0  0  0  0
   -3.6812    1.7308    0.0000 Cl  0  0  0  0  0  0  0  0  0  0  0  0
   -0.3653   -3.4291    0.0000 C   0  0  0  0  0  0  0  0  0  0  0  0
    1.5708    4.5587    0.0000 C   0  0  0  0  0  0  0  0  0  0  0  0
   -0.9351    3.8727    0.0000 C   0  0  0  0  0  0  0  0  0  0  0  0
   -1.3312    5.3194    0.0000 C   0  0  0  0  0  0  0  0  0  0  0  0
    1.1747    6.0055    0.0000 C   0  0  0  0  0  0  0  0  0  0  0  0
   -0.2763    6.3858    0.0000 C   0  0  0  0  0  0  0  0  0  0  0  0
  2  1  1  0
  3  2  2  0
  4  1  1  0
  5  4  2  0
  6  3  1  0
  7 10  1  0
  8  9  2  0
  9  1  1  0
 10  4  1  0
 11  2  1  0
 12  3  1  0
 13  6  1  0
 14 15  1  0
 15 11  2  0
 16 14  1  0
 17  9  1  0
 18 13  2  0
 19 13  1  0
 20 19  2  0
 21 18  1  0
 22 20  1  0
  5  8  1  0
  6  7  2  0
 14 12  2  0
 22 21  2  0
M  END

> <chembl_id>
CHEMBL661

> <chembl_pref_name>
ALPRAZOLAM

$$$$

     RDKit          2D

 19 21  0  0  0  0  0  0  0  0999 V2000
    1.5792   -8.3625    0.0000 C   0  0  0  0  0  0  0  0  0  0  0  0
    2.0292   -9.7750    0.0000 N   0  0  0  0  0  0  0  0  0  0  0  0
    1.4417   -9.1917    0.0000 C   0  0  0  0  0  0  0  0  0  0  0  0
    3.0625   -8.2542    0.0000 N   0  0  0  0  0  0  0  0  0  0  0  0
    2.2917   -7.9500    0.0000 C   0  0  0  0  0  0  0  0  0  0  0  0
    3.3042   -9.0417    0.0000 C   0  0  0  0  0  0  0  0  0  0  0  0
    0.7250   -9.5958    0.0000 C   0  0  0  0  0  0  0  0  0  0  0  0
    0.8625   -7.9500    0.0000 C   0  0  0  0  0  0  0  0  0  0  0  0
    2.8375   -9.7250    0.0000 C   0  0  0  0  0  0  0  0  0  0  0  0
    0.0333   -9.1500    0.0000 N   0  0  0  0  0  0  0  0  0  0  0  0
    2.2917   -7.1250    0.0000 C   0  0  0  0  0  0  0  0  0  0  0  0
    4.1167   -9.1625    0.0000 O   0  0  0  0  0  0  0  0  0  0  0  0
    0.8625   -7.1250    0.0000 C   0  0  0  0  0  0  0  0  0  0  0  0
    1.5792   -6.7125    0.0000 C   0  0  0  0  0  0  0  0  0  0  0  0
    0.1500   -6.7125    0.0000 Br  0  0  0  0  0  0  0  0  0  0  0  0
   -0.6958   -9.5708    0.0000 C   0  0  0  0  0  0  0  0  0  0  0  0
    0.7292  -10.4125    0.0000 C   0  0  0  0  0  0  0  0  0  0  0  0
   -0.6958  -10.3875    0.0000 C   0  0  0  0  0  0  0  0  0  0  0  0
    0.0000  -10.8292    0.0000 C   0  0  0  0  0  0  0  0  0  0  0  0
  2  3  2  0
  3  1  1  0
  4  5  1  0
  5  1  2  0
  6  4  1  0
  7  3  1  0
  8  1  1  0
  9  2  1  0
 10  7  1  0
 11  5  1  0
 12  6  2  0
 13  8  2  0
 14 13  1  0
 15 13  1  0
 16 10  2  0
 17  7  2  0
 18 19  2  0
 19 17  1  0
 14 11  2  0
  9  6  1  0
 16 18  1  0
M  END

> <chembl_id>
CHEMBL277062

> <chembl_pref_name>
BROMAZEPAM

$$$$

     RDKit          2D

 21 23  0  0  0  0  0  0  0  0999 V2000
   14.3250   -0.8167    0.0000 N   0  0  0  0  0  0  0  0  0  0  0  0
   12.9750   -0.5042    0.0000 C   0  0  0  0  0  0  0  0  0  0  0  0
   13.5792   -0.9750    0.0000 C   0  0  0  0  0  0  0  0  0  0  0  0
   13.5792    0.7458    0.0000 N   0  0  0  0  0  0  0  0  0  0  0  0
   14.6542   -0.1375    0.0000 C   0  0  0  0  0  0  0  0  0  0  0  0
   12.9750    0.2625    0.0000 C   0  0  0  0  0  0  0  0  0  0  0  0
   14.3250    0.5875    0.0000 C   0  0  0  0  0  0  0  0  0  0  0  0
   14.7292   -1.3417    0.0000 O   0  0  0  0  0  0  0  0  0  0  0  0
   12.3125   -0.8792    0.0000 C   0  0  0  0  0  0  0  0  0  0  0  0
   10.9542   -0.8625    0.0000 Cl  0  0  0  0  0  0  0  0  0  0  0  0
   13.5792   -1.7417    0.0000 C   0  0  0  0  0  0  0  0  0  0  0  0
   12.3125    0.6500    0.0000 C   0  0  0  0  0  0  0  0  0  0  0  0
   11.6500   -0.4917    0.0000 C   0  0  0  0  0  0  0  0  0  0  0  0
   14.7667    1.2083    0.0000 N   0  0  0  0  0  0  0  0  0  0  0  0
   11.6500    0.2583    0.0000 C   0  0  0  0  0  0  0  0  0  0  0  0
   12.9000   -2.1292    0.0000 C   0  0  0  0  0  0  0  0  0  0  0  0
   14.2417   -2.1292    0.0000 C   0  0  0  0  0  0  0  0  0  0  0  0
   15.5417    1.2083    0.0000 C   0  0  0  0  0  0  0  0  0  0  0  0
   14.2417   -2.9000    0.0000 C   0  0  0  0  0  0  0  0  0  0  0  0
   12.9000   -2.9000    0.0000 C   0  0  0  0  0  0  0  0  0  0  0  0
   13.5792   -3.2875    0.0000 C   0  0  0  0  0  0  0  0  0  0  0  0
  2  3  1  0
  3  1  2  0
  4  7  2  0
  5  1  1  0
  6  2  2  0
  7  5  1  0
  8  1  1  0
  9  2  1  0
 10 13  1  0
 11  3  1  0
 12  6  1  0
 13  9  2  0
 14  7  1  0
 15 13  1  0
 16 11  1  0
 17 11  2  0
 18 14  1  0
 19 17  1  0
 20 16  2  0
 21 19  2  0
  6  4  1  0
 21 20  1  0
 15 12  2  0
M  CHG  2   1   1   8  -1
M  END

> <chembl_id>
CHEMBL451

> <chembl_pref_name>
CHLORDIAZEPOXIDE

$$$$

     RDKit          2D

 21 23  0  0  0  0  0  0  0  0999 V2000
   10.0917   -2.9375    0.0000 N   0  0  0  0  0  0  0  0  0  0  0  0
   10.6792   -2.8042    0.0000 C   0  0  0  0  0  0  0  0  0  0  0  0
    9.6292   -2.5750    0.0000 C   0  0  0  0  0  0  0  0  0  0  0  0
   10.0917   -1.6042    0.0000 N   0  0  0  0  0  0  0  0  0  0  0  0
   10.6792   -1.7417    0.0000 C   0  0  0  0  0  0  0  0  0  0  0  0
    9.6292   -1.9792    0.0000 C   0  0  0  0  0  0  0  0  0  0  0  0
   10.9500   -2.2542    0.0000 C   0  0  0  0  0  0  0  0  0  0  0  0
    9.1167   -2.8667    0.0000 C   0  0  0  0  0  0  0  0  0  0  0  0
    9.1167   -1.6792    0.0000 C   0  0  0  0  0  0  0  0  0  0  0  0
   11.0667   -3.2792    0.0000 O   0  0  0  0  0  0  0  0  0  0  0  0
    9.9417   -3.5167    0.0000 C   0  0  0  0  0  0  0  0  0  0  0  0
   11.0792   -1.2792    0.0000 O   0  0  0  0  0  0  0  0  0  0  0  0
    8.5917   -2.5667    0.0000 C   0  0  0  0  0  0  0  0  0  0  0  0
    8.5917   -1.9792    0.0000 C   0  0  0  0  0  0  0  0  0  0  0  0
    9.9417   -1.0125    0.0000 C   0  0  0  0  0  0  0  0  0  0  0  0
    8.0542   -2.8667    0.0000 Cl  0  0  0  0  0  0  0  0  0  0  0  0
   10.3667   -3.9417    0.0000 C   0  0  0  0  0  0  0  0  0  0  0  0
    9.3667   -3.6750    0.0000 C   0  0  0  0  0  0  0  0  0  0  0  0
    9.2167   -4.2542    0.0000 C   0  0  0  0  0  0  0  0  0  0  0  0
   10.2167   -4.5167    0.0000 C   0  0  0  0  0  0  0  0  0  0  0  0
    9.6417   -4.6792    0.0000 C   0  0  0  0  0  0  0  0  0  0  0  0
  2  1  1  0
  3  1  1  0
  4  6  1  0
  5  7  1  0
  6  3  2  0
  7  2  1  0
  8  3  1  0
  9  6  1  0
 10  2  2  0
 11  1  1  0
 12  5  2  0
 13  8  2  0
 14 13  1  0
 15  4  1  0
 16 13  1  0
 17 11  2  0
 18 11  1  0
 19 18  2  0
 20 17  1  0
 21 19  1  0
  4  5  1  0
 20 21  2  0
  9 14  2  0
M  END

> <chembl_id>
CHEMBL70418

> <chembl_pref_name>
CLOBAZAM

$$$$

     RDKit          2D

 22 24  0  0  0  0  0  0  0  0999 V2000
    4.3167  -15.7792    0.0000 C   0  0  0  0  0  0  0  0  0  0  0  0
    3.6667  -15.2542    0.0000 C   0  0  0  0  0  0  0  0  0  0  0  0
    5.1292  -15.5917    0.0000 N   0  0  0  0  0  0  0  0  0  0  0  0
    1.5167  -15.6667    0.0000 N   0  0  0  0  0  0  0  0  0  0  0  0
    3.6667  -14.4292    0.0000 C   0  0  0  0  0  0  0  0  0  0  0  0
    4.3167  -13.9042    0.0000 N   0  0  0  0  0  0  0  0  0  0  0  0
    4.1375  -16.5792    0.0000 C   0  0  0  0  0  0  0  0  0  0  0  0
    2.9500  -15.6667    0.0000 C   0  0  0  0  0  0  0  0  0  0  0  0
    2.2375  -15.2542    0.0000 C   0  0  0  0  0  0  0  0  0  0  0  0
    5.1292  -14.0792    0.0000 C   0  0  0  0  0  0  0  0  0  0  0  0
    0.8042  -15.2625    0.0000 O   0  0  0  0  0  0  0  0  0  0  0  0
    1.5167  -16.5000    0.0000 O   0  0  0  0  0  0  0  0  0  0  0  0
    5.4917  -14.8375    0.0000 C   0  0  0  0  0  0  0  0  0  0  0  0
    4.7417  -17.1375    0.0000 C   0  0  0  0  0  0  0  0  0  0  0  0
    2.9500  -14.0167    0.0000 C   0  0  0  0  0  0  0  0  0  0  0  0
    2.2375  -14.4292    0.0000 C   0  0  0  0  0  0  0  0  0  0  0  0
    5.6417  -13.4375    0.0000 O   0  0  0  0  0  0  0  0  0  0  0  0
    5.5292  -16.8875    0.0000 Cl  0  0  0  0  0  0  0  0  0  0  0  0
    3.3500  -16.8250    0.0000 C   0  0  0  0  0  0  0  0  0  0  0  0
    4.5625  -17.9375    0.0000 C   0  0  0  0  0  0  0  0  0  0  0  0
    3.1667  -17.6250    0.0000 C   0  0  0  0  0  0  0  0  0  0  0  0
    3.7667  -18.1875    0.0000 C   0  0  0  0  0  0  0  0  0  0  0  0
  2  1  1  0
  3  1  2  0
  4  9  1  0
  5  2  1  0
  6  5  1  0
  7  1  1  0
  8  2  2  0
  9  8  1  0
 10 13  1  0
 11  4  1  0
 12  4  2  0
 13  3  1  0
 14  7  1  0
 15  5  2  0
 16  9  2  0
 17 10  2  0
 18 14  1  0
 19  7  2  0
 20 14  2  0
 21 19  1  0
 22 21  2  0
 10  6  1  0
 22 20  1  0
 16 15  1  0
M  CHG  2   4   1  11  -1
M  END

> <chembl_id>
CHEMBL452

> <chembl_pref_name>
CLONAZEPAM

$$$$

     RDKit          2D

 23 24  0  0  0  0  0  0  0  0999 V2000
    4.4917   -2.7792    0.0000 K   0  0  0  0  0 15  0  0  0  0  0  0
    1.8417   -1.4042    0.0000 N   0  0  0  0  0  0  0  0  0  0  0  0
    2.1500   -2.0292    0.0000 C   0  0  0  0  0  0  0  0  0  0  0  0
    1.1667   -1.2417    0.0000 C   0  0  0  0  0  0  0  0  0  0  0  0
    1.8417   -2.6625    0.0000 C   0  0  0  0  0  0  0  0  0  0  0  0
    0.6125   -1.6792    0.0000 C   0  0  0  0  0  0  0  0  0  0  0  0
    1.1667   -2.8167    0.0000 N   0  0  0  0  0  0  0  0  0  0  0  0
    0.6125   -2.3792    0.0000 C   0  0  0  0  0  0  0  0  0  0  0  0
    2.8417   -2.0250    0.0000 C   0  0  0  0  0  0  0  0  0  0  0  0
    0.0042   -1.3292    0.0000 C   0  0  0  0  0  0  0  0  0  0  0  0
    2.2792   -3.2125    0.0000 O   0  0  0  0  0  0  0  0  0  0  0  0
    1.1542   -0.5375    0.0000 C   0  0  0  0  0  0  0  0  0  0  0  0
    3.2042   -2.6167    0.0000 O   0  0  0  0  0  0  0  0  0  0  0  0
    3.1917   -1.4042    0.0000 O   0  0  0  0  0  0  0  0  0  0  0  0
    0.0042   -2.7375    0.0000 C   0  0  0  0  0  0  0  0  0  0  0  0
   -0.6000   -1.6792    0.0000 C   0  0  0  0  0  0  0  0  0  0  0  0
   -0.6000   -2.3792    0.0000 C   0  0  0  0  0  0  0  0  0  0  0  0
   -1.2208   -1.3292    0.0000 Cl  0  0  0  0  0  0  0  0  0  0  0  0
    0.5500   -0.1792    0.0000 C   0  0  0  0  0  0  0  0  0  0  0  0
    1.7667   -0.1917    0.0000 C   0  0  0  0  0  0  0  0  0  0  0  0
    0.5542    0.5250    0.0000 C   0  0  0  0  0  0  0  0  0  0  0  0
    1.7667    0.5083    0.0000 C   0  0  0  0  0  0  0  0  0  0  0  0
    1.1625    0.8708    0.0000 C   0  0  0  0  0  0  0  0  0  0  0  0
  3  2  1  0
  4  2  2  0
  5  3  1  0
  6  4  1  0
  7  5  1  0
  8  6  1  0
  9  3  1  0
 10  6  2  0
 11  5  2  0
 12  4  1  0
 13  9  1  0
 14  9  2  0
 15  8  2  0
 16 10  1  0
 17 16  2  0
 18 16  1  0
 19 12  1  0
 20 12  2  0
 21 19  2  0
 22 20  1  0
 23 21  1  0
  8  7  1  0
 22 23  2  0
 17 15  1  0
M  CHG  2   1   1  13  -1
M  END

> <chembl_id>
CHEMBL2106085

> <chembl_pref_name>
CLORAZEPATE_MONOPOTASSIUM

$$$$

     RDKit          2D

 20 22  0  0  0  0  0  0  0  0999 V2000
   12.4865   -9.1494    0.0000 C   0  0  0  0  0  0  0  0  0  0  0  0
   12.4853   -9.9718    0.0000 C   0  0  0  0  0  0  0  0  0  0  0  0
   13.2036  -10.3843    0.0000 C   0  0  0  0  0  0  0  0  0  0  0  0
   13.2018   -8.7370    0.0000 C   0  0  0  0  0  0  0  0  0  0  0  0
   11.7671  -10.3833    0.0000 Cl  0  0  0  0  0  0  0  0  0  0  0  0
   13.9146   -9.9708    0.0000 C   0  0  0  0  0  0  0  0  0  0  0  0
   13.9140   -9.1463    0.0000 C   0  0  0  0  0  0  0  0  0  0  0  0
   14.5528   -8.6343    0.0000 N   0  0  0  0  0  0  0  0  0  0  0  0
   14.5528  -10.4823    0.0000 C   0  0  0  0  0  0  0  0  0  0  0  0
   15.3521   -8.8204    0.0000 C   0  0  0  0  0  0  0  0  0  0  0  0
   15.3526  -10.2984    0.0000 N   0  0  0  0  0  0  0  0  0  0  0  0
   15.7115   -9.5655    0.0000 C   0  0  0  0  0  0  0  0  0  0  0  0
   14.5535  -11.3073    0.0000 C   0  0  0  0  0  0  0  0  0  0  0  0
   13.8390  -11.7203    0.0000 C   0  0  0  0  0  0  0  0  0  0  0  0
   13.8403  -12.5479    0.0000 C   0  0  0  0  0  0  0  0  0  0  0  0
   14.5555  -12.9593    0.0000 C   0  0  0  0  0  0  0  0  0  0  0  0
   15.2666  -12.5496    0.0000 C   0  0  0  0  0  0  0  0  0  0  0  0
   15.2659  -11.7192    0.0000 C   0  0  0  0  0  0  0  0  0  0  0  0
   15.8672   -8.1603    0.0000 O   0  0  0  0  0  0  0  0  0  0  0  0
   15.9796  -11.3071    0.0000 Cl  0  0  0  0  0  0  0  0  0  0  0  0
  8 10  1  0
  9 11  2  0
  2  5  1  0
 10 12  1  0
 11 12  1  0
  2  3  1  0
  3  6  2  0
 13 14  2  0
  6  7  1  0
 14 15  1  0
  1  2  2  0
 15 16  2  0
  7  8  1  0
 16 17  1  0
  7  4  2  0
 17 18  2  0
 18 13  1  0
  9 13  1  0
  6  9  1  0
 10 19  2  0
  4  1  1  0
 18 20  1  0
M  END

> <chembl_id>
CHEMBL268254

> <chembl_pref_name>
DELORAZEPAM

$$$$

     RDKit          2D

 20 22  0  0  0  0  0  0  0  0999 V2000
   -2.3698    0.7600    0.0000 Cl  0  0  0  0  0  0  0  0  0  0  0  0
    1.7373    0.1967    0.0000 O   0  0  0  0  0  0  0  0  0  0  0  0
    1.7373    2.9733    0.0000 O   0  0  0  0  0  0  0  0  0  0  0  0
    1.2229    0.8417    0.0000 N   0  0  0  0  0  0  0  0  0  0  0  0
    0.4186    2.5119    0.0000 N   0  0  0  0  0  0  0  0  0  0  0  0
   -0.2264    1.1725    0.0000 C   0  0  0  0  0  0  0  0  0  0  0  0
    0.4186    0.6581    0.0000 C   0  0  0  0  0  0  0  0  0  0  0  0
   -0.2264    1.9975    0.0000 C   0  0  0  0  0  0  0  0  0  0  0  0
    0.2350   -0.1462    0.0000 C   0  0  0  0  0  0  0  0  0  0  0  0
   -0.9409    0.7600    0.0000 C   0  0  0  0  0  0  0  0  0  0  0  0
    1.2229    2.3283    0.0000 C   0  0  0  0  0  0  0  0  0  0  0  0
    1.5809    1.5850    0.0000 C   0  0  0  0  0  0  0  0  0  0  0  0
   -0.9409    2.4100    0.0000 C   0  0  0  0  0  0  0  0  0  0  0  0
   -1.6553    1.1725    0.0000 C   0  0  0  0  0  0  0  0  0  0  0  0
   -1.6553    1.9975    0.0000 C   0  0  0  0  0  0  0  0  0  0  0  0
    0.8398   -0.7074    0.0000 C   0  0  0  0  0  0  0  0  0  0  0  0
   -0.5533   -0.3894    0.0000 C   0  0  0  0  0  0  0  0  0  0  0  0
    0.6562   -1.5117    0.0000 C   0  0  0  0  0  0  0  0  0  0  0  0
   -0.7369   -1.1937    0.0000 C   0  0  0  0  0  0  0  0  0  0  0  0
   -0.1321   -1.7548    0.0000 C   0  0  0  0  0  0  0  0  0  0  0  0
  1 14  1  0
  2  4  1  0
  3 11  2  0
  4  7  2  0
  4 12  1  0
  5  8  1  0
  5 11  1  0
  6  7  1  0
  6  8  1  0
  6 10  2  0
  7  9  1  0
  8 13  2  0
  9 16  2  0
  9 17  1  0
 10 14  1  0
 11 12  1  0
 13 15  1  0
 14 15  2  0
 16 18  1  0
 17 19  2  0
 18 20  2  0
 19 20  1  0
M  CHG  2   2  -1   4   1
M  END

> <chembl_id>
CHEMBL1597677

> <chembl_pref_name>
DEMOXEPAM

$$$$